cases/transmission/generated_cases/hourly_case_18.m
%% MATPOWER Case Format : Version 2
function mpc = case2383wp
mpc.version = '2';
%%-----  Power Flow Data  -----%%
%% system MVA base
mpc.baseMVA = 100;
%% bus data
%    bus_i    type    Pd    Qd    Gs    Bs    area    Vm    Va    baseKV    zone    Vmax    Vmin
mpc.bus = [
	1	1	0.0	0.0	0.0	0.0	1	1.0956919448574716	6.869796361026897	220.0	1	1.11	0.95				
	2	1	0.0	0.0	0.0	0.0	1	1.0867455806761788	7.765369312914359	220.0	1	1.11	0.95				
	3	1	0.0	0.0	0.0	0.0	1	1.0829571261312774	-1.0526377954689738	220.0	1	1.11	0.95				
	4	1	0.0	0.0	0.0	0.0	1	1.0792699179044507	5.607768039070916	220.0	1	1.11	0.95				
	5	1	0.0	0.0	0.0	0.0	1	1.0729191839582288	0.6964422967965215	220.0	1	1.11	0.95				
	6	1	0.0	0.0	0.0	0.0	1	1.0344911506581962	2.8461873018068937	400.0	1	1.05	0.95				
	7	1	0.0	0.0	0.0	0.0	1	1.0663872054742887	-0.0684954145306491	220.0	1	1.11	0.95				
	8	1	0.0	0.0	0.0	0.0	1	1.041125765853203	2.100796773619536	400.0	1	1.05	0.95				
	9	1	0.0	0.0	0.0	0.0	1	1.0452779023631347	1.6464860891535482	400.0	1	1.05	0.95				
	10	2	9.784	7.199999999999999	0.0	0.0	1	1.1082311	3.6035089206800257	220.0	1	1.11	0.95				
	11	1	0.0	0.0	0.0	0.0	1	1.0847618315538372	6.210838214432397	220.0	1	1.11	0.95				
	12	1	0.0	0.0	0.0	0.0	1	1.0692761680720477	0.09340468193377476	220.0	1	1.11	0.95				
	13	1	0.0	0.0	0.0	0.0	1	1.0709387158084223	-0.02173780091145656	220.0	1	1.11	0.95				
	14	1	0.0	0.0	0.0	0.0	1	1.0727259094742325	6.2462285409793985	220.0	1	1.11	0.95				
	15	1	0.0	0.0	0.0	0.0	1	1.0296795830929766	0.008396728900796381	400.0	1	1.05	0.95				
	16	2	43.90400000000001	80.0	0.0	0.0	1	1.0974008	7.189703580337595	220.0	1	1.11	0.95				
	17	2	61.60000000000001	120.00000000000001	0.0	0.0	1	1.0910267	8.326291577715201	220.0	1	1.11	0.95				
	18	3	122.40000000000002	280.0	0.0	0.0	1	1.0337129	0.0	400.0	1	1.05	0.95				
	19	1	0.0	0.0	0.0	0.0	1	1.0697233111032984	-0.1751494814473963	220.0	1	1.11	0.95				
	20	1	0.0	0.0	0.0	0.0	1	1.035245058433764	1.7102915728635302	400.0	1	1.05	0.95				
	21	1	0.0	0.0	0.0	0.0	1	1.0660054401939145	-0.3651700651845629	220.0	1	1.11	0.95				
	22	1	0.0	0.0	0.0	0.0	1	1.0840111824366128	6.057433281199679	220.0	1	1.11	0.95				
	23	1	0.0	0.0	0.0	0.0	1	1.0639389638238994	3.766709153073467	220.0	2	1.11	0.95				
	24	1	0.0	0.0	0.0	0.0	1	1.0552909707873528	6.930317518192113	220.0	2	1.11	0.95				
	25	1	0.0	0.0	0.0	0.0	1	1.0574999330341466	8.281165567275883	220.0	2	1.11	0.95				
	26	1	0.0	0.0	0.0	0.0	1	1.053813291413599	2.1119662867256004	220.0	2	1.11	0.95				
	27	1	0.0	0.0	0.0	0.0	1	1.0686306122731957	6.47849988985879	220.0	2	1.11	0.95				
	28	1	0.0	0.0	0.0	0.0	1	1.068597923606268	6.484771522639987	220.0	2	1.11	0.95				
	29	2	20.784000000000002	48.0	0.0	0.0	1	1.0967104	4.3889380381211875	220.0	2	1.11	0.95				
	30	2	20.784000000000002	48.0	0.0	0.0	1	1.0967037	4.388287736033328	220.0	2	1.11	0.95				
	31	2	16.784000000000002	40.0	0.0	0.0	1	1.0214422	7.525820711796482	400.0	2	1.05	0.95				
	32	1	0.0	0.0	0.0	0.0	1	1.0214537732608895	7.498510003974052	400.0	2	1.05	0.95				
	33	1	0.0	0.0	0.0	0.0	1	1.0633111868159597	5.949796168170381	220.0	2	1.11	0.95				
	34	1	0.0	0.0	0.0	0.0	1	1.0452983501927144	7.014908461925584	400.0	2	1.05	0.95				
	35	1	0.0	0.0	0.0	0.0	1	1.0453212614236076	7.0098263792340605	400.0	2	1.05	0.95				
	36	1	0.0	0.0	0.0	0.0	1	1.0059137096248938	5.187415962628739	400.0	2	1.05	0.95				
	37	1	0.0	0.0	0.0	0.0	1	1.0636249860076072	3.7555902744402268	220.0	2	1.11	0.95				
	38	1	0.0	0.0	0.0	0.0	1	1.0636264617543405	3.7574944176003338	220.0	2	1.11	0.95				
	39	1	0.0	0.0	0.0	0.0	1	1.0173920780525747	8.431707580548187	400.0	2	1.05	0.95				
	40	1	0.0	0.0	0.0	0.0	1	1.017370338351595	8.43938093180254	400.0	2	1.05	0.95				
	41	2	9.592	24.0	0.0	0.0	1	1.0608776	9.921166679875647	220.0	2	1.11	0.95				
	42	2	9.592	24.0	0.0	0.0	1	1.0608614	9.910212244805258	220.0	2	1.11	0.95				
	43	2	19.184	48.0	0.0	0.0	1	1.0229141	10.323940282035617	400.0	2	1.05	0.95				
	44	2	19.184	48.0	0.0	0.0	1	1.0229414	10.31235038591442	400.0	2	1.05	0.95				
	45	2	127.87200000000001	60.00000000000001	0.0	0.0	1	1.0792177	3.719872536630993	220.0	2	1.11	0.95				
	46	1	0.0	0.0	0.0	0.0	1	1.0792327375917574	3.721642675903546	220.0	2	1.11	0.95				
	47	1	0.0	0.0	0.0	0.0	1	1.0627220783531268	6.387162951730741	220.0	2	1.11	0.95				
	48	1	0.0	0.0	0.0	0.0	1	1.0804519488770923	4.010263344060438	220.0	2	1.11	0.95				
	49	1	0.0	0.0	0.0	0.0	1	1.0804667293897043	4.008235118684522	220.0	2	1.11	0.95				
	50	1	0.0	0.0	0.0	0.0	1	1.0317936280070625	8.26995015138234	400.0	2	1.05	0.95				
	51	1	0.0	0.0	0.0	0.0	1	1.0318786168292406	8.257689287350171	400.0	2	1.05	0.95				
	52	1	0.0	0.0	0.0	0.0	1	1.054567874522161	6.530986208041293	220.0	2	1.11	0.95				
	53	1	0.0	0.0	0.0	0.0	1	1.0565609004291605	6.587570794362043	220.0	2	1.11	0.95				
	54	1	0.0	0.0	0.0	0.0	1	1.0576786336699089	8.330256164502613	220.0	2	1.11	0.95				
	55	1	0.0	0.0	0.0	0.0	1	1.0683178639674493	4.804739290010266	220.0	2	1.11	0.95				
	56	1	0.0	0.0	0.0	0.0	1	1.0777991080992522	6.6619124033311525	220.0	3	1.11	0.95				
	57	1	18.384	8.768	0.0	0.0	1	1.080127991661631	11.504366262220877	220.0	3	1.11	0.95				
	58	1	17.584	4.632	0.0	0.0	1	1.0803026253776544	11.504383949477596	220.0	3	1.11	0.95				
	59	1	0.0	0.0	0.0	0.0	1	1.1061767508295526	19.013367397723304	220.0	3	1.11	0.95				
	60	1	0.0	0.0	0.0	0.0	1	1.1043588296484994	13.222620138089967	220.0	3	1.11	0.95				
	61	1	0.0	0.0	0.0	0.0	1	1.1086170883835629	20.93183623787317	220.0	3	1.11	0.95				
	62	1	0.0	0.0	0.0	0.0	1	1.1085973457053804	20.935275610822004	220.0	3	1.11	0.95				
	63	2	29.896	42.151999999999994	0.0	0.0	1	1.11	18.93701219422358	220.0	3	1.11	0.95				
	64	2	28.296	44.25600000000001	0.0	0.0	1	1.1092626	18.476270502167967	220.0	3	1.11	0.95				
	65	1	10.712000000000002	1.616	0.0	0.0	1	1.1044033053848243	17.23223820288707	220.0	3	1.11	0.95				
	66	1	0.0	0.0	0.0	0.0	1	1.1045191243873638	9.312866448256948	220.0	3	1.11	0.95				
	67	2	48.32	73.68	0.0	0.0	1	1.05	9.676292576611335	400.0	3	1.05	0.95				
	68	1	0.0	0.0	0.0	0.0	1	1.1028455351095063	10.742891955187554	220.0	3	1.11	0.95				
	69	1	0.0	0.0	0.0	0.0	1	1.107224527276928	17.042182418857443	220.0	3	1.11	0.95				
	70	1	0.0	0.0	0.0	0.0	1	1.081318411748953	7.721072769616309	220.0	3	1.11	0.95				
	71	1	0.0	0.0	0.0	0.0	1	1.0992385167919345	15.199990962222044	220.0	3	1.11	0.95				
	72	1	0.0	0.0	0.0	0.0	1	1.0992385167919345	15.199990962222044	220.0	3	1.11	0.95				
	73	1	0.0	0.0	0.0	0.0	1	1.0830487080399436	7.976318972142935	220.0	3	1.11	0.95				
	74	1	0.0	0.0	0.0	0.0	1	1.081838559071026	7.215188504665027	220.0	3	1.11	0.95				
	75	1	0.0	0.0	0.0	0.0	1	1.0306606548005812	3.3364033941552713	400.0	3	1.05	0.95				
	76	1	0.0	0.0	0.0	0.0	1	1.0306280615073686	3.3384351086205304	400.0	3	1.05	0.95				
	77	1	0.0	0.0	0.0	0.0	1	1.0991803877488855	14.942837842808995	220.0	3	1.11	0.95				
	78	1	0.0	0.0	0.0	0.0	1	1.0979343199450018	12.252212951997514	220.0	3	1.11	0.95				
	79	1	0.0	0.0	0.0	0.0	1	1.0957840763870927	15.31306640026423	220.0	3	1.11	0.95				
	80	1	0.0	0.0	0.0	0.0	1	1.0806312203889783	11.54547508557297	220.0	3	1.11	0.95				
	81	1	0.0	0.0	0.0	0.0	1	1.0806527242331625	11.545725839538052	220.0	3	1.11	0.95				
	82	1	0.0	0.0	0.0	0.0	1	1.1047547674903433	20.049447151158542	220.0	3	1.11	0.95				
	83	2	12.792	18.376	0.0	0.0	1	1.1089547	16.938324175275017	220.0	3	1.11	0.95				
	84	2	12.631999999999998	17.816000000000003	0.0	0.0	1	1.1090726	16.938920608900403	220.0	3	1.11	0.95				
	85	2	7.992000000000001	13.608000000000004	0.0	0.0	1	1.1017195	14.293719858162198	220.0	3	1.11	0.95				
	86	2	7.992000000000001	13.328000000000001	0.0	0.0	1	1.1016369	14.290927353464738	220.0	3	1.11	0.95				
	87	1	8.872	12.975999999999999	0.0	0.0	1	1.0857520386673658	12.216747475948917	220.0	3	1.11	0.95				
	88	1	0.0	0.0	0.0	0.0	1	1.0857591139431253	12.22317017018139	220.0	3	1.11	0.95				
	89	1	0.0	0.0	0.0	0.0	1	1.1015620127342822	17.89593111128998	220.0	3	1.11	0.95				
	90	1	0.0	0.0	0.0	0.0	1	1.1048992421665829	15.925431982717821	220.0	3	1.11	0.95				
	91	1	0.0	0.0	0.0	0.0	1	1.103812670779576	17.76400128252796	220.0	3	1.11	0.95				
	92	1	0.0	0.0	0.0	0.0	1	1.0242911670991806	6.886362993873002	400.0	3	1.05	0.95				
	93	2	7.992000000000001	13.112000000000002	0.0	0.0	1	1.1056302	17.47511501059074	220.0	3	1.11	0.95				
	94	1	0.0	0.0	0.0	0.0	1	1.1056042141415918	17.472834860477843	220.0	3	1.11	0.95				
	95	2	5.5120000000000005	6.5200000000000005	0.0	0.0	1	1.1075265	18.436992401772056	220.0	3	1.11	0.95				
	96	1	0.0	0.0	0.0	0.0	1	1.1075288331527091	18.433379758242978	220.0	3	1.11	0.95				
	97	2	6.952	4.208	0.0	0.0	1	1.0967425	15.991744740155605	220.0	3	1.11	0.95				
	98	1	0.0	0.0	0.0	0.0	1	1.0239935306613226	8.619932383814026	400.0	3	1.05	0.95				
	99	1	0.0	0.0	0.0	0.0	1	1.0240804019066203	8.62197883992933	400.0	3	1.05	0.95				
	100	1	0.0	0.0	0.0	0.0	1	1.0323707834159126	6.328394119398902	400.0	3	1.05	0.95				
	101	1	0.0	0.0	0.0	0.0	1	1.0324204619531157	6.313462160455579	400.0	3	1.05	0.95				
	102	1	0.0	0.0	0.0	0.0	1	1.1034153003950125	18.119963215717746	220.0	3	1.11	0.95				
	103	2	14.472000000000001	19.008000000000003	0.0	0.0	1	1.1067084	14.913146825100629	220.0	3	1.11	0.95				
	104	2	26.944000000000003	36.888000000000005	0.0	0.0	1	1.106757	14.92495819442681	220.0	3	1.11	0.95				
	105	2	27.023999999999997	50.36000000000001	0.0	0.0	1	1.0166743	7.310350992753712	400.0	3	1.05	0.95				
	106	1	0.0	0.0	0.0	0.0	1	1.0167946539090715	7.3184486449827295	400.0	3	1.05	0.95				
	107	1	0.0	0.0	0.0	0.0	1	1.0805354191188359	7.612685803331194	220.0	3	1.11	0.95				
	108	1	0.0	0.0	0.0	0.0	1	1.0821625285353107	7.82913969464235	220.0	3	1.11	0.95				
	109	2	0.8	17.888	0.0	0.0	1	1.11	21.65394956873823	220.0	3	1.11	0.95				
	110	2	0.8	17.744	0.0	0.0	1	1.11	21.657265413647423	220.0	3	1.11	0.95				
	111	2	21.192	14.399999999999999	0.0	0.0	1	1.1066085	7.162844177456175	220.0	4	1.11	0.95				
	112	1	0.0	0.0	0.0	0.0	1	1.1065396686145863	7.158078109187083	220.0	4	1.11	0.95				
	113	1	0.0	0.0	0.0	0.0	1	1.0649450391130866	1.5075599554581436	220.0	4	1.11	0.95				
	114	1	0.0	0.0	0.0	0.0	1	1.0766436298589588	2.6462995715899327	220.0	4	1.11	0.95				
	115	1	0.0	0.0	0.0	0.0	1	0.9933692644769077	3.4903647342503863	400.0	4	1.05	0.95				
	116	1	0.0	0.0	0.0	0.0	1	0.9934094170594909	3.492598113300436	400.0	4	1.05	0.95				
	117	1	0.0	0.0	0.0	0.0	1	1.080718079616375	-0.3933347036811875	220.0	4	1.11	0.95				
	118	1	0.0	0.0	0.0	0.0	1	1.0693501462393669	-3.9107336175538494	220.0	4	1.11	0.95				
	119	1	0.0	0.0	0.0	0.0	1	1.0693501462393669	-3.9107336175538494	220.0	4	1.11	0.95				
	120	1	0.0	0.0	0.0	0.0	1	1.0543892256859622	-3.650463292313881	220.0	4	1.11	0.95				
	121	1	0.0	0.0	0.0	0.0	1	1.0715811322278255	0.43106354130589425	220.0	4	1.11	0.95				
	122	1	0.0	0.0	0.0	0.0	1	1.0715811322278255	0.43106354130589425	220.0	4	1.11	0.95				
	123	2	4.4	5.6000000000000005	0.0	0.0	1	1.1096575	5.656333312451271	220.0	4	1.11	0.95				
	124	2	7.031999999999999	13.600000000000001	0.0	0.0	1	1.1096796	5.6596580139264185	220.0	4	1.11	0.95				
	125	2	28.560000000000002	14.64	0.0	0.0	1	1.1062235	-1.620910885872884	220.0	4	1.11	0.95				
	126	1	20.224000000000004	12.72	0.0	0.0	1	1.1060714849984727	-1.6117256639287438	220.0	4	1.11	0.95				
	127	2	20.568	12.24	0.0	0.0	1	1.0330077	4.1711697606961184	400.0	4	1.05	0.95				
	128	1	0.0	0.0	0.0	0.0	1	1.032954514351083	4.161306711346516	400.0	4	1.05	0.95				
	129	1	0.0	0.0	0.0	0.0	1	1.0505268330557307	-1.9130799193678882	220.0	4	1.11	0.95				
	130	1	0.0	0.0	0.0	0.0	1	1.038896296301412	-2.0757057422567917	220.0	4	1.11	0.95				
	131	2	54.93599999999999	55.99999999999999	0.0	0.0	1	1.0993161	5.412980134672988	220.0	4	1.11	0.95				
	132	2	26.400000000000002	36.00000000000001	0.0	0.0	1	1.0994336	5.399662801351409	220.0	4	1.11	0.95				
	133	1	0.0	0.0	0.0	0.0	1	0.9958704876358879	4.790166442194119	400.0	4	1.05	0.95				
	134	1	0.0	0.0	0.0	0.0	1	0.9958542851154739	4.7925145280100585	400.0	4	1.05	0.95				
	135	1	0.0	0.0	0.0	0.0	1	1.0693312095656635	-3.9189359111439583	220.0	4	1.11	0.95				
	136	1	0.0	0.0	0.0	0.0	1	1.0693312095656635	-3.9189359111439583	220.0	4	1.11	0.95				
	137	1	0.0	0.0	0.0	0.0	1	1.0128175637640715	4.823952595828985	400.0	4	1.05	0.95				
	138	1	0.0	0.0	0.0	0.0	1	1.0128175637640715	4.823952595828985	400.0	4	1.05	0.95				
	139	2	26.56	18.080000000000002	0.0	0.0	1	1.11	5.613826143291475	220.0	4	1.11	0.95				
	140	2	23.384	15.680000000000001	0.0	0.0	1	1.1099933	5.608182324808209	220.0	4	1.11	0.95				
	141	1	0.0	0.0	0.0	0.0	1	1.053634951562825	-3.8795664039354056	220.0	4	1.11	0.95				
	142	1	0.0	0.0	0.0	0.0	1	1.066373222270009	-4.065868144125557	220.0	4	1.11	0.95				
	143	1	0.0	0.0	0.0	0.0	1	1.0783742960408007	-1.1614402188765278	220.0	4	1.11	0.95				
	144	1	0.0	0.0	0.0	0.0	1	1.0783026523457904	-1.1623341342062683	220.0	4	1.11	0.95				
	145	1	0.0	0.0	0.0	0.0	1	0.9795375938737925	-0.09385979830098018	400.0	4	1.05	0.95				
	146	1	0.0	0.0	0.0	0.0	1	0.9795375938737925	-0.09385979830098018	400.0	4	1.05	0.95				
	147	1	0.0	0.0	0.0	0.0	1	1.0486115878517823	-0.3998138560721196	220.0	4	1.11	0.95				
	148	1	0.0	0.0	0.0	0.0	1	1.0486650553179586	-0.39599654869129713	220.0	4	1.11	0.95				
	149	1	0.0	0.0	0.0	0.0	1	1.0746034151871724	-1.658486259587506	220.0	4	1.11	0.95				
	150	1	0.0	0.0	0.0	0.0	1	1.0684430659914148	1.8895329526817704	220.0	4	1.11	0.95				
	151	1	0.0	0.0	0.0	0.0	1	1.0684498818607537	1.8853931716862704	220.0	4	1.11	0.95				
	152	1	0.0	0.0	0.0	0.0	1	1.0692552022545156	3.0286297990134865	220.0	4	1.11	0.95				
	153	1	0.0	0.0	0.0	0.0	1	1.0692552022545156	3.0286297990134865	220.0	4	1.11	0.95				
	154	1	0.0	0.0	0.0	0.0	1	1.0325732456269179	-1.7006115569420126	220.0	4	1.11	0.95				
	155	1	0.0	0.0	0.0	0.0	1	1.059117220490519	0.08658928091777288	220.0	5	1.11	0.95				
	156	1	0.0	0.0	0.0	0.0	1	1.1119253178869004	0.20119331656202535	220.0	5	1.11	0.95				
	157	1	0.0	0.0	0.0	0.0	1	1.0265954568159674	1.8087010221277633	400.0	5	1.05	0.95				
	158	1	0.0	0.0	0.0	0.0	1	1.026581000335215	1.8088917132486353	400.0	5	1.05	0.95				
	159	1	0.0	0.0	0.0	0.0	1	1.0312824326696552	1.4242776991530781	400.0	5	1.05	0.95				
	160	1	0.0	0.0	0.0	0.0	1	1.0313125317619474	1.4257729966139467	400.0	5	1.05	0.95				
	161	1	0.0	0.0	0.0	0.0	1	1.0580814035989083	-1.8016222548559055	220.0	5	1.11	0.95				
	162	1	0.0	0.0	0.0	0.0	1	1.0580859511584322	-1.801513604266386	220.0	5	1.11	0.95				
	163	1	0.0	0.0	0.0	0.0	1	1.0954569548681958	-0.23710277658225767	220.0	5	1.11	0.95				
	164	1	0.0	0.0	0.0	0.0	1	1.0954318768757132	-0.23946433483493812	220.0	5	1.11	0.95				
	165	1	0.0	0.0	0.0	0.0	1	1.0137882187095653	-0.9417225796623248	400.0	5	1.05	0.95				
	166	1	0.0	0.0	0.0	0.0	1	1.0719592437842023	0.6451765113330189	220.0	5	1.11	0.95				
	167	1	0.0	0.0	0.0	0.0	1	1.0720042998600585	0.6467785191399529	220.0	5	1.11	0.95				
	168	1	0.0	0.0	0.0	0.0	1	1.0333775223714776	-0.13701452210013731	400.0	5	1.05	0.95				
	169	1	0.0	0.0	0.0	0.0	1	1.0333629304895116	-0.14322425621098886	400.0	5	1.05	0.95				
	170	1	0.0	0.0	0.0	0.0	1	1.0592013002847112	-1.3828887959651326	220.0	5	1.11	0.95				
	171	1	0.0	0.0	0.0	0.0	1	1.059234187987762	-1.3808673042028097	220.0	5	1.11	0.95				
	172	1	0.0	0.0	0.0	0.0	1	1.0666482377260857	-0.9655786025668011	220.0	5	1.11	0.95				
	173	1	0.0	0.0	0.0	0.0	1	1.0666098915599898	-0.9649423002895641	220.0	5	1.11	0.95				
	174	1	0.0	0.0	0.0	0.0	1	1.063675177266287	0.462025424641539	220.0	5	1.11	0.95				
	175	1	0.0	0.0	0.0	0.0	1	1.0636563045054457	0.4572542712065196	220.0	5	1.11	0.95				
	176	2	0.0	32.00000000000001	0.0	0.0	1	1.0312974	3.567359690920914	400.0	5	1.05	0.95				
	177	2	0.0	32.00000000000001	0.0	0.0	1	1.0314652	3.564574743267974	400.0	5	1.05	0.95				
	178	1	0.0	0.0	0.0	0.0	1	1.0808056957941596	-1.5286659481665579	220.0	5	1.11	0.95				
	179	1	0.0	0.0	0.0	0.0	1	1.0808414646411926	-1.5252930703384835	220.0	5	1.11	0.95				
	180	2	271.88000000000005	39.68000000000001	0.0	0.0	2	1.0088011	5.105353388075686	400.0	6	1.05	0.95				
	181	2	0.0	0.0	0.0	0.0	3	1.107243	11.681195018499773	220.0	6	1.11	0.95				
	182	2	0.0	0.0	0.0	0.0	5	0.99674384	5.089197048806484	400.0	6	1.05	0.95				
	183	1	120.00000000000001	0.0	0.0	0.0	3	1.0518845118971525	6.262452165644381	400.0	6	1.05	0.95				
	184	2	253.87199999999996	40.24	0.0	0.0	2	1.0968373	14.647691747409514	220.0	6	1.11	0.95				
	185	2	289.944	29.360000000000003	0.0	0.0	2	1.0079864	4.463522747334831	400.0	6	1.05	0.95				
	186	2	26.663999999999998	0.8	0.0	0.0	5	1.1085323	-1.729319156094003	220.0	6	1.11	0.95				
	187	1	5.696000000000001	1.2	0.0	0.0	1	1.0760171049033536	-3.2459974418922153	110.0	1	1.12	0.95				
	188	1	6.104	0.8	0.0	0.0	1	1.0601881482467004	-5.806706033012537	110.0	1	1.12	0.95				
	189	1	7.816000000000001	6.959999999999999	0.0	0.0	1	1.0169648270125644	-6.660551721367861	110.0	1	1.12	0.95				
	190	1	4.896000000000001	1.2	0.0	0.0	1	1.1093398211420937	4.526299455194272	110.0	1	1.12	0.95				
	191	1	4.896000000000001	1.28	0.0	0.0	1	1.0878549927876602	3.871423745152889	110.0	1	1.12	0.95				
	192	2	24.448	9.6	0.0	0.0	1	1.12	0.0741278423017727	110.0	1	1.12	0.95				
	193	1	12.224	2.4	0.0	0.0	1	1.1191205910498074	-0.028845021338946255	110.0	1	1.12	0.95				
	194	1	0.0	0.0	0.0	0.0	1	1.1190458335784894	-0.053002441442665804	110.0	1	1.12	0.95				
	195	1	6.512	1.6	0.0	0.0	1	1.0837213174003204	-3.361166858082523	110.0	1	1.12	0.95				
	196	2	5.536	1.2	0.0	0.0	1	1.0192036	-5.4635500352749	110.0	1	1.12	0.95				
	197	1	5.536	1.2	0.0	0.0	1	1.0779782206545332	0.16225616824104164	110.0	1	1.12	0.95				
	198	2	9.856000000000002	1.36	0.0	0.0	1	1.0753335	-3.8238911923265744	110.0	1	1.12	0.95				
	199	1	1.1440000000000001	0.4	0.0	0.0	1	1.110179430939092	3.2724409459139507	110.0	1	1.12	0.95				
	200	1	0.864	0.4	0.0	0.0	1	1.105205278743698	-4.239638768220424	110.0	1	1.12	0.95				
...
];
%% generator data
%    bus    Pg    Qg    Qmax    Qmin    Vg    mBase    status    Pmax    Pmin    Pc1    Pc2    Qc1min    Qc1max    Qc2min    Qc2max    ramp_agc    ramp_10    ramp_30    ramp_q    apf
mpc.gen = [
	10	400.0	89.18327624488442	120.0	0.0	1.0	168.0	1	400.0	0.0	0.0	0.0	0.0	0.0	0.0	0.0	0.0	0.0	0.0	0.0	0.0				
	16	720.0	180.70284850890084	440.00000000000006	-40.0	1.0	823.0	1	720.0	0.0	0.0	0.0	0.0	0.0	0.0	0.0	0.0	0.0	0.0	0.0	0.0				
	17	1080.0	213.55025847449994	660.0	-60.0	1.0	1234.0	1	1080.0	0.0	0.0	0.0	0.0	0.0	0.0	0.0	0.0	0.0	0.0	0.0	0.0				
	18	-2595.5873695024884	357.48095961592327	1540.0	-140.0	1.0	2879.0	1	2520.0	0.0	0.0	0.0	0.0	0.0	0.0	0.0	0.0	0.0	0.0	0.0	0.0				
	29	70.0	199.39822222520124	240.0	0.0	1.0	511.0	1	400.0	0.0	0.0	0.0	0.0	0.0	0.0	0.0	0.0	0.0	0.0	0.0	0.0				
	30	70.0	110.59532910409142	240.0	0.0	1.0	511.0	1	800.0	0.0	0.0	0.0	0.0	0.0	0.0	0.0	0.0	0.0	0.0	0.0	0.0				
	31	1000.0	-117.56464022593518	350.0	0.0	1.0	420.0	1	1000.0	0.0	0.0	0.0	0.0	0.0	0.0	0.0	0.0	0.0	0.0	0.0	0.0				
	41	200.0	-10.104286428332541	120.0	0.0	1.0	241.0	1	200.0	0.0	0.0	0.0	0.0	0.0	0.0	0.0	0.0	0.0	0.0	0.0	0.0				
	42	70.0	-13.380344279132144	120.0	0.0	1.0	241.0	1	409.99999999999994	0.0	0.0	0.0	0.0	0.0	0.0	0.0	0.0	0.0	0.0	0.0	0.0				
	43	409.99999999999994	-21.762577727243567	240.0	0.0	1.0	482.0	1	409.99999999999994	0.0	0.0	0.0	0.0	0.0	0.0	0.0	0.0	0.0	0.0	0.0	0.0				
	44	409.99999999999994	-36.29221820731922	240.0	0.0	1.0	482.0	1	409.99999999999994	0.0	0.0	0.0	0.0	0.0	0.0	0.0	0.0	0.0	0.0	0.0	0.0				
	45	42.2	-7.337878730496472	21.0	0.0	1.0	49.0	1	42.2	0.0	0.0	0.0	0.0	0.0	0.0	0.0	0.0	0.0	0.0	0.0	0.0				
	63	650.0	85.39181864422852	302.0	0.0	1.0	473.0	1	650.0	0.0	0.0	0.0	0.0	0.0	0.0	0.0	0.0	0.0	0.0	0.0	0.0				
	64	450.0	87.48860729942079	311.0	2.0	1.0	475.0	1	450.0	0.0	0.0	0.0	0.0	0.0	0.0	0.0	0.0	0.0	0.0	0.0	0.0				
	67	750.0	256.1678180816215	449.0	0.0	1.0	864.0	1	750.0	0.0	0.0	0.0	0.0	0.0	0.0	0.0	0.0	0.0	0.0	0.0	0.0				
	83	225.0	-103.11376193884911	190.0	-89.0	1.0	239.0	1	225.0	0.0	0.0	0.0	0.0	0.0	0.0	0.0	0.0	0.0	0.0	0.0	0.0				
	84	225.0	162.2909998957742	190.0	-89.0	1.0	251.0	1	225.0	0.0	0.0	0.0	0.0	0.0	0.0	0.0	0.0	0.0	0.0	0.0	0.0				
	85	120.0	127.76287333645125	125.0	-50.0	1.0	133.0	1	120.0	0.0	0.0	0.0	0.0	0.0	0.0	0.0	0.0	0.0	0.0	0.0	0.0				
	86	120.0	0.04260352520919778	125.0	-50.0	1.0	133.0	1	120.0	0.0	0.0	0.0	0.0	0.0	0.0	0.0	0.0	0.0	0.0	0.0	0.0				
	93	120.0	61.94821852136463	90.0	5.0	1.0	123.0	1	120.0	0.0	0.0	0.0	0.0	0.0	0.0	0.0	0.0	0.0	0.0	0.0	0.0				
	95	110.00000000000001	7.024870556749871	68.0	27.0	1.0	105.0	1	110.00000000000001	0.0	0.0	0.0	0.0	0.0	0.0	0.0	0.0	0.0	0.0	0.0	0.0				
	97	87.6	30.569371928249	68.0	27.0	1.0	105.0	1	87.6	0.0	0.0	0.0	0.0	0.0	0.0	0.0	0.0	0.0	0.0	0.0	0.0				
	103	160.0	101.9370284694604	177.0	-82.0	1.0	239.0	1	400.0	0.0	0.0	0.0	0.0	0.0	0.0	0.0	0.0	0.0	0.0	0.0	0.0				
	104	225.0	96.37934194942494	379.0	-177.0	1.0	490.0	1	225.0	0.0	0.0	0.0	0.0	0.0	0.0	0.0	0.0	0.0	0.0	0.0	0.0				
	105	430.0	-175.44593455000538	353.0	-165.0	1.0	502.0	1	430.0	0.0	0.0	0.0	0.0	0.0	0.0	0.0	0.0	0.0	0.0	0.0	0.0				
	109	250.0	10.272071301126605	65.0	0.0	1.0	277.0	1	250.0	0.0	0.0	0.0	0.0	0.0	0.0	0.0	0.0	0.0	0.0	0.0	0.0				
	110	250.0	10.48650606502735	65.0	0.0	1.0	280.0	1	250.0	0.0	0.0	0.0	0.0	0.0	0.0	0.0	0.0	0.0	0.0	0.0	0.0				
	111	360.0	44.41298189943099	270.0	0.0	1.0	401.0	1	360.0	0.0	0.0	0.0	0.0	0.0	0.0	0.0	0.0	0.0	0.0	0.0	0.0				
	123	20.0	10.993022211900172	40.0	0.0	1.0	98.0	1	110.00000000000001	0.0	0.0	0.0	0.0	0.0	0.0	0.0	0.0	0.0	0.0	0.0	0.0				
	124	125.0	45.94507953067298	90.0	0.0	1.0	132.0	1	125.0	0.0	0.0	0.0	0.0	0.0	0.0	0.0	0.0	0.0	0.0	0.0	0.0				
	125	70.0	327.9619339785657	360.0	0.0	1.0	654.0	1	860.0	0.0	0.0	0.0	0.0	0.0	0.0	0.0	0.0	0.0	0.0	0.0	0.0				
	127	690.0	-33.54083142870686	360.0	0.0	1.0	540.0	1	690.0	0.0	0.0	0.0	0.0	0.0	0.0	0.0	0.0	0.0	0.0	0.0	0.0				
	131	645.377	15.903114573205645	360.0	0.0	1.0	696.0	1	1060.0	0.0	0.0	0.0	0.0	0.0	0.0	0.0	0.0	0.0	0.0	0.0	0.0				
	132	70.0	255.1588530628302	480.0	0.0	1.0	732.0	1	600.0	0.0	0.0	0.0	0.0	0.0	0.0	0.0	0.0	0.0	0.0	0.0	0.0				
	139	408.6700000000001	113.16729493197994	360.0	0.0	1.0	714.0	1	600.0	0.0	0.0	0.0	0.0	0.0	0.0	0.0	0.0	0.0	0.0	0.0	0.0				
	140	200.0	77.46970397610775	120.0	0.0	1.0	240.0	1	200.0	0.0	0.0	0.0	0.0	0.0	0.0	0.0	0.0	0.0	0.0	0.0	0.0				
	176	600.0	-154.41777887329263	220.00000000000003	-120.0	1.0	430.0	1	600.0	0.0	0.0	0.0	0.0	0.0	0.0	0.0	0.0	0.0	0.0	0.0	0.0				
	177	200.0	167.22449038440217	220.00000000000003	-120.0	1.0	430.0	1	200.0	0.0	0.0	0.0	0.0	0.0	0.0	0.0	0.0	0.0	0.0	0.0	0.0				
	180	0.0	-2.7928872711700383	99999.0	-99999.0	1.0	7485.0	1	0.0	0.0	0.0	0.0	0.0	0.0	0.0	0.0	0.0	0.0	0.0	0.0	0.0				
	181	175.0	24.01577760919552	99999.0	-99999.0	1.0	210.0	1	175.0	0.0	0.0	0.0	0.0	0.0	0.0	0.0	0.0	0.0	0.0	0.0	0.0				
	182	307.59	14.71443949055106	99999.0	-99999.0	1.0	13465.0	1	307.59	0.0	0.0	0.0	0.0	0.0	0.0	0.0	0.0	0.0	0.0	0.0	0.0				
	184	0.0	43.998166439777854	99999.0	-99999.0	1.0	8353.0	1	0.0	0.0	0.0	0.0	0.0	0.0	0.0	0.0	0.0	0.0	0.0	0.0	0.0				
	185	0.0	-6.932265652349108	99999.0	-99999.0	1.0	14254.0	1	0.0	0.0	0.0	0.0	0.0	0.0	0.0	0.0	0.0	0.0	0.0	0.0	0.0				
	186	0.0	31.058269554035476	99999.0	-99999.0	1.0	7401.0	1	0.0	0.0	0.0	0.0	0.0	0.0	0.0	0.0	0.0	0.0	0.0	0.0	0.0				
	192	95.0	13.06074151765321	50.0	0.0	1.0	114.0	1	95.0	0.0	0.0	0.0	0.0	0.0	0.0	0.0	0.0	0.0	0.0	0.0	0.0				
	196	0.9000000000000001	-0.17243516361066774	1.0	0.0	1.0	1.0	1	0.9000000000000001	0.0	0.0	0.0	0.0	0.0	0.0	0.0	0.0	0.0	0.0	0.0	0.0				
	198	0.8	-3.643594948954508	1.0	0.0	1.0	1.0	1	0.8	0.0	0.0	0.0	0.0	0.0	0.0	0.0	0.0	0.0	0.0	0.0	0.0				
	205	15.0	-7.6629701806432955	10.0	0.0	1.0	18.0	1	15.0	0.0	0.0	0.0	0.0	0.0	0.0	0.0	0.0	0.0	0.0	0.0	0.0				
	213	11.0	-6.489583124810137	8.0	0.0	1.0	13.0	1	11.0	0.0	0.0	0.0	0.0	0.0	0.0	0.0	0.0	0.0	0.0	0.0	0.0				
	264	2.5	-2.281910395597955	2.0	0.0	1.0	3.0	1	2.5	0.0	0.0	0.0	0.0	0.0	0.0	0.0	0.0	0.0	0.0	0.0	0.0				
	269	6.0	-0.10254741059554728	5.0	0.0	1.0	7.0	1	6.0	0.0	0.0	0.0	0.0	0.0	0.0	0.0	0.0	0.0	0.0	0.0	0.0				
	277	70.0	22.308232996692457	42.0	0.0	1.0	84.0	1	70.0	0.0	0.0	0.0	0.0	0.0	0.0	0.0	0.0	0.0	0.0	0.0	0.0				
	278	60.0	-10.403382532601524	40.0	0.0	1.0	72.0	1	60.0	0.0	0.0	0.0	0.0	0.0	0.0	0.0	0.0	0.0	0.0	0.0	0.0				
	279	60.0	6.0042719541749765	40.0	0.0	1.0	72.0	1	60.0	0.0	0.0	0.0	0.0	0.0	0.0	0.0	0.0	0.0	0.0	0.0	0.0				
	281	120.0	20.85891095588969	90.0	0.0	1.0	144.0	1	120.0	0.0	0.0	0.0	0.0	0.0	0.0	0.0	0.0	0.0	0.0	0.0	0.0				
	282	40.0	3.3642299106692275	40.0	0.0	1.0	48.0	1	40.0	0.0	0.0	0.0	0.0	0.0	0.0	0.0	0.0	0.0	0.0	0.0	0.0				
	289	2.5	-4.701051005309041	3.0	0.0	1.0	3.0	1	2.5	0.0	0.0	0.0	0.0	0.0	0.0	0.0	0.0	0.0	0.0	0.0	0.0				
	294	2.0	-10.47898294022694	1.0	0.0	1.0	2.0	1	2.0	0.0	0.0	0.0	0.0	0.0	0.0	0.0	0.0	0.0	0.0	0.0	0.0				
	314	1.5	-0.5035644026107624	1.0	0.0	1.0	2.0	1	1.5	0.0	0.0	0.0	0.0	0.0	0.0	0.0	0.0	0.0	0.0	0.0	0.0				
	328	44.0	6.386417838738205	21.0	0.0	1.0	53.0	1	44.0	0.0	0.0	0.0	0.0	0.0	0.0	0.0	0.0	0.0	0.0	0.0	0.0				
	329	44.0	13.313763457142668	21.0	0.0	1.0	53.0	1	44.0	0.0	0.0	0.0	0.0	0.0	0.0	0.0	0.0	0.0	0.0	0.0	0.0				
	330	44.0	-15.578224134671107	21.0	0.0	1.0	53.0	1	44.0	0.0	0.0	0.0	0.0	0.0	0.0	0.0	0.0	0.0	0.0	0.0	0.0				
	331	43.0	11.405960609007101	21.0	0.0	1.0	52.0	1	43.0	0.0	0.0	0.0	0.0	0.0	0.0	0.0	0.0	0.0	0.0	0.0	0.0				
	334	1.5	-4.769577367966929	1.0	0.0	1.0	2.0	1	1.5	0.0	0.0	0.0	0.0	0.0	0.0	0.0	0.0	0.0	0.0	0.0	0.0				
	346	200.0	17.873881345170236	120.0	0.0	1.0	180.0	1	200.0	0.0	0.0	0.0	0.0	0.0	0.0	0.0	0.0	0.0	0.0	0.0	0.0				
	347	10.0	3.31764855577982	15.0	0.0	1.0	12.0	1	10.0	0.0	0.0	0.0	0.0	0.0	0.0	0.0	0.0	0.0	0.0	0.0	0.0				
	359	1.5	-2.0897693388235354	1.0	0.0	1.0	2.0	1	1.5	0.0	0.0	0.0	0.0	0.0	0.0	0.0	0.0	0.0	0.0	0.0	0.0				
	365	5.1	-7.888747319286228	3.0	0.0	1.0	6.0	1	5.1	0.0	0.0	0.0	0.0	0.0	0.0	0.0	0.0	0.0	0.0	0.0	0.0				
	382	8.0	-1.3524352624207587	5.0	0.0	1.0	10.0	1	8.0	0.0	0.0	0.0	0.0	0.0	0.0	0.0	0.0	0.0	0.0	0.0	0.0				
	383	8.0	-11.841323490294585	5.0	0.0	1.0	10.0	1	8.0	0.0	0.0	0.0	0.0	0.0	0.0	0.0	0.0	0.0	0.0	0.0	0.0				
	385	6.0	-8.575624195309581	4.0	0.0	1.0	7.0	1	6.0	0.0	0.0	0.0	0.0	0.0	0.0	0.0	0.0	0.0	0.0	0.0	0.0				
	390	4.5	-0.6580734501373191	3.0	0.0	1.0	5.0	1	4.5	0.0	0.0	0.0	0.0	0.0	0.0	0.0	0.0	0.0	0.0	0.0	0.0				
	395	10.0	-0.9078061340860585	8.0	0.0	1.0	12.0	1	10.0	0.0	0.0	0.0	0.0	0.0	0.0	0.0	0.0	0.0	0.0	0.0	0.0				
	404	3.0	-3.040921060796221	3.0	0.0	1.0	4.0	1	3.0	0.0	0.0	0.0	0.0	0.0	0.0	0.0	0.0	0.0	0.0	0.0	0.0				
	426	3.2	-9.886975203698793	2.0	0.0	1.0	4.0	1	3.2	0.0	0.0	0.0	0.0	0.0	0.0	0.0	0.0	0.0	0.0	0.0	0.0				
	444	1.0	-10.672854090330596	1.0	0.0	1.0	1.0	1	1.0	0.0	0.0	0.0	0.0	0.0	0.0	0.0	0.0	0.0	0.0	0.0	0.0				
	451	4.5	-17.800513001169396	3.0	0.0	1.0	5.0	1	4.5	0.0	0.0	0.0	0.0	0.0	0.0	0.0	0.0	0.0	0.0	0.0	0.0				
	482	1.0	14.817753580844611	1.0	0.0	1.0	1.0	1	1.0	0.0	0.0	0.0	0.0	0.0	0.0	0.0	0.0	0.0	0.0	0.0	0.0				
	492	2.0	-3.9350095605336026	1.0	0.0	1.0	2.0	1	2.0	0.0	0.0	0.0	0.0	0.0	0.0	0.0	0.0	0.0	0.0	0.0	0.0				
	493	234.0	83.45405216413995	130.0	0.0	1.0	281.0	1	234.0	0.0	0.0	0.0	0.0	0.0	0.0	0.0	0.0	0.0	0.0	0.0	0.0				
	494	234.0	96.59411532912183	130.0	0.0	1.0	281.0	1	234.0	0.0	0.0	0.0	0.0	0.0	0.0	0.0	0.0	0.0	0.0	0.0	0.0				
	514	114.99999999999999	57.15558635931747	90.0	0.0	1.0	138.0	1	114.99999999999999	0.0	0.0	0.0	0.0	0.0	0.0	0.0	0.0	0.0	0.0	0.0	0.0				
	515	114.99999999999999	41.666986334152014	90.0	0.0	1.0	138.0	1	114.99999999999999	0.0	0.0	0.0	0.0	0.0	0.0	0.0	0.0	0.0	0.0	0.0	0.0				
	525	6.0	-4.033009767513302	4.0	0.0	1.0	7.0	1	6.0	0.0	0.0	0.0	0.0	0.0	0.0	0.0	0.0	0.0	0.0	0.0	0.0				
	536	6.0	-3.763437624171056	6.0	0.0	1.0	7.0	1	6.0	0.0	0.0	0.0	0.0	0.0	0.0	0.0	0.0	0.0	0.0	0.0	0.0				
	537	3.5000000000000004	-1.9476517484645426	3.0	0.0	1.0	4.0	1	3.5000000000000004	0.0	0.0	0.0	0.0	0.0	0.0	0.0	0.0	0.0	0.0	0.0	0.0				
	556	2.7	-3.250687211227542	1.0	0.0	1.0	3.0	1	2.7	0.0	0.0	0.0	0.0	0.0	0.0	0.0	0.0	0.0	0.0	0.0	0.0				
	580	1.6	-1.0866948134781456	1.0	0.0	1.0	2.0	1	1.6	0.0	0.0	0.0	0.0	0.0	0.0	0.0	0.0	0.0	0.0	0.0	0.0				
	584	2.7	0.4765495806660797	2.0	0.0	1.0	3.0	1	2.7	0.0	0.0	0.0	0.0	0.0	0.0	0.0	0.0	0.0	0.0	0.0	0.0				
	585	4.0	-0.9113428577188806	2.0	0.0	1.0	5.0	1	4.0	0.0	0.0	0.0	0.0	0.0	0.0	0.0	0.0	0.0	0.0	0.0	0.0				
	607	0.8	-2.008048262308089	0.0	0.0	1.0	1.0	1	0.8	0.0	0.0	0.0	0.0	0.0	0.0	0.0	0.0	0.0	0.0	0.0	0.0				
	612	152.955	58.59377745144185	120.0	0.0	1.0	256.0	1	200.0	0.0	0.0	0.0	0.0	0.0	0.0	0.0	0.0	0.0	0.0	0.0	0.0				
	613	200.0	69.24939909388246	120.0	0.0	1.0	256.0	1	200.0	0.0	0.0	0.0	0.0	0.0	0.0	0.0	0.0	0.0	0.0	0.0	0.0				
	615	1.4	-14.416404143186268	1.0	0.0	1.0	2.0	1	1.4	0.0	0.0	0.0	0.0	0.0	0.0	0.0	0.0	0.0	0.0	0.0	0.0				
	623	7.6	0.7321876926589994	5.0	0.0	1.0	9.0	1	7.6	0.0	0.0	0.0	0.0	0.0	0.0	0.0	0.0	0.0	0.0	0.0	0.0				
	639	9.6	-8.794768813235306	4.0	0.0	1.0	12.0	1	9.6	0.0	0.0	0.0	0.0	0.0	0.0	0.0	0.0	0.0	0.0	0.0	0.0				
	651	4.7	-6.915535518940687	2.0	0.0	1.0	6.0	1	4.7	0.0	0.0	0.0	0.0	0.0	0.0	0.0	0.0	0.0	0.0	0.0	0.0				
	654	1.4	-7.205336878017592	1.0	0.0	1.0	2.0	1	1.4	0.0	0.0	0.0	0.0	0.0	0.0	0.0	0.0	0.0	0.0	0.0	0.0				
	664	6.2	-1.875763989986771	6.0	0.0	1.0	7.0	1	6.2	0.0	0.0	0.0	0.0	0.0	0.0	0.0	0.0	0.0	0.0	0.0	0.0				
	670	2.7	-3.7816687304343537	2.0	0.0	1.0	3.0	1	2.7	0.0	0.0	0.0	0.0	0.0	0.0	0.0	0.0	0.0	0.0	0.0	0.0				
	674	1.0	-4.556481754896869	0.0	0.0	1.0	1.0	1	1.0	0.0	0.0	0.0	0.0	0.0	0.0	0.0	0.0	0.0	0.0	0.0	0.0				
	688	70.0	11.252662960831422	120.0	0.0	1.0	242.0	1	202.0	0.0	0.0	0.0	0.0	0.0	0.0	0.0	0.0	0.0	0.0	0.0	0.0				
	692	1.4	-6.06154441251749	1.0	0.0	1.0	2.0	1	1.4	0.0	0.0	0.0	0.0	0.0	0.0	0.0	0.0	0.0	0.0	0.0	0.0				
	699	3.8	-8.438751221687331	2.0	0.0	1.0	5.0	1	3.8	0.0	0.0	0.0	0.0	0.0	0.0	0.0	0.0	0.0	0.0	0.0	0.0				
	712	1.2	-10.635388571846551	1.0	0.0	1.0	1.0	1	1.2	0.0	0.0	0.0	0.0	0.0	0.0	0.0	0.0	0.0	0.0	0.0	0.0				
	730	6.9	-5.332731934330704	3.0	0.0	1.0	8.0	1	6.9	0.0	0.0	0.0	0.0	0.0	0.0	0.0	0.0	0.0	0.0	0.0	0.0				
	732	1.1	-5.593502296060786	1.0	0.0	1.0	1.0	1	1.1	0.0	0.0	0.0	0.0	0.0	0.0	0.0	0.0	0.0	0.0	0.0	0.0				
	735	4.1	-3.6458873413841735	2.0	0.0	1.0	5.0	1	4.1	0.0	0.0	0.0	0.0	0.0	0.0	0.0	0.0	0.0	0.0	0.0	0.0				
	740	4.0	-2.7748356178030074	1.0	0.0	1.0	5.0	1	4.0	0.0	0.0	0.0	0.0	0.0	0.0	0.0	0.0	0.0	0.0	0.0	0.0				
	744	134.0	-7.762058873854942	60.0	0.0	1.0	161.0	1	134.0	0.0	0.0	0.0	0.0	0.0	0.0	0.0	0.0	0.0	0.0	0.0	0.0				
	754	80.0	-10.99601628425026	30.0	0.0	1.0	54.0	1	80.0	0.0	0.0	0.0	0.0	0.0	0.0	0.0	0.0	0.0	0.0	0.0	0.0				
	755	85.0	-3.2940410461793848	80.0	0.0	1.0	110.0	1	250.0	0.0	0.0	0.0	0.0	0.0	0.0	0.0	0.0	0.0	0.0	0.0	0.0				
	760	3.1	-5.395452146470373	2.0	0.0	1.0	4.0	1	3.1	0.0	0.0	0.0	0.0	0.0	0.0	0.0	0.0	0.0	0.0	0.0	0.0				
	766	2.1	-1.4316471559156831	1.0	0.0	1.0	3.0	1	2.1	0.0	0.0	0.0	0.0	0.0	0.0	0.0	0.0	0.0	0.0	0.0	0.0				
	784	0.7	-19.465370042520977	0.0	0.0	1.0	1.0	1	0.7	0.0	0.0	0.0	0.0	0.0	0.0	0.0	0.0	0.0	0.0	0.0	0.0				
	790	49.8	25.114055736957138	35.0	35.0	1.0	60.0	1	49.8	0.0	0.0	0.0	0.0	0.0	0.0	0.0	0.0	0.0	0.0	0.0	0.0				
	795	1.8900000000000001	-3.0986178559383952	1.0	1.0	1.0	2.0	1	1.8900000000000001	0.0	0.0	0.0	0.0	0.0	0.0	0.0	0.0	0.0	0.0	0.0	0.0				
	798	2.99	0.6732754318204472	3.0	3.0	1.0	4.0	1	2.99	0.0	0.0	0.0	0.0	0.0	0.0	0.0	0.0	0.0	0.0	0.0	0.0				
	814	44.92	10.5289243550623	42.0	0.0	1.0	54.0	1	44.92	0.0	0.0	0.0	0.0	0.0	0.0	0.0	0.0	0.0	0.0	0.0	0.0				
	834	55.00000000000001	68.85372275479462	83.0	0.0	1.0	110.0	1	55.00000000000001	0.0	0.0	0.0	0.0	0.0	0.0	0.0	0.0	0.0	0.0	0.0	0.0				
	878	2.99	-6.720795647987013	0.0	0.0	1.0	4.0	1	2.99	0.0	0.0	0.0	0.0	0.0	0.0	0.0	0.0	0.0	0.0	0.0	0.0				
	884	2.49	-4.780668525760863	0.0	0.0	1.0	3.0	1	2.49	0.0	0.0	0.0	0.0	0.0	0.0	0.0	0.0	0.0	0.0	0.0	0.0				
	892	31.869999999999997	22.38504027151222	42.0	6.0	1.0	38.0	1	31.869999999999997	0.0	0.0	0.0	0.0	0.0	0.0	0.0	0.0	0.0	0.0	0.0	0.0				
	895	8.96	3.162932116309005	7.000000000000001	7.000000000000001	1.0	11.0	1	8.96	0.0	0.0	0.0	0.0	0.0	0.0	0.0	0.0	0.0	0.0	0.0	0.0				
	901	3.6799999999999997	-4.708878760773359	2.0	2.0	1.0	4.0	1	3.6799999999999997	0.0	0.0	0.0	0.0	0.0	0.0	0.0	0.0	0.0	0.0	0.0	0.0				
	910	4.58	-0.23265983666736822	3.0	3.0	1.0	6.0	1	4.58	0.0	0.0	0.0	0.0	0.0	0.0	0.0	0.0	0.0	0.0	0.0	0.0				
	911	370.0	43.493951744804455	224.00000000000003	0.0	1.0	415.0	1	370.0	0.0	0.0	0.0	0.0	0.0	0.0	0.0	0.0	0.0	0.0	0.0	0.0				
	912	370.0	53.79107487845835	224.00000000000003	0.0	1.0	415.0	1	370.0	0.0	0.0	0.0	0.0	0.0	0.0	0.0	0.0	0.0	0.0	0.0	0.0				
	914	15.93	4.617824367390773	10.0	10.0	1.0	19.0	1	15.93	0.0	0.0	0.0	0.0	0.0	0.0	0.0	0.0	0.0	0.0	0.0	0.0				
	917	2.09	-2.489542335758776	0.0	0.0	1.0	3.0	1	2.09	0.0	0.0	0.0	0.0	0.0	0.0	0.0	0.0	0.0	0.0	0.0	0.0				
	919	21.91	4.849105035849604	12.0	12.0	1.0	26.0	1	21.91	0.0	0.0	0.0	0.0	0.0	0.0	0.0	0.0	0.0	0.0	0.0	0.0				
	920	1.9900000000000002	-3.9143362681138916	0.0	0.0	1.0	2.0	1	1.9900000000000002	0.0	0.0	0.0	0.0	0.0	0.0	0.0	0.0	0.0	0.0	0.0	0.0				
	929	63.73	24.690344415869674	50.0	28.999999999999996	1.0	77.0	1	63.73	0.0	0.0	0.0	0.0	0.0	0.0	0.0	0.0	0.0	0.0	0.0	0.0				
	959	2.49	-4.924838878720096	1.0	1.0	1.0	3.0	1	2.49	0.0	0.0	0.0	0.0	0.0	0.0	0.0	0.0	0.0	0.0	0.0	0.0				
	968	0.7	-6.39541982342737	0.0	0.0	1.0	1.0	1	0.7	0.0	0.0	0.0	0.0	0.0	0.0	0.0	0.0	0.0	0.0	0.0	0.0				
	993	3.9800000000000004	-2.051123174584131	1.0	1.0	1.0	5.0	1	3.9800000000000004	0.0	0.0	0.0	0.0	0.0	0.0	0.0	0.0	0.0	0.0	0.0	0.0				
	994	1.9900000000000002	0.38439890611418187	1.0	1.0	1.0	2.0	1	1.9900000000000002	0.0	0.0	0.0	0.0	0.0	0.0	0.0	0.0	0.0	0.0	0.0	0.0				
	995	20.0	21.685710723605776	38.0	0.0	1.0	60.0	1	100.0	0.0	0.0	0.0	0.0	0.0	0.0	0.0	0.0	0.0	0.0	0.0	0.0				
	996	20.0	15.454649946646665	38.0	0.0	1.0	60.0	1	50.0	0.0	0.0	0.0	0.0	0.0	0.0	0.0	0.0	0.0	0.0	0.0	0.0				
	997	20.0	24.92681113072618	38.0	0.0	1.0	60.0	1	50.0	0.0	0.0	0.0	0.0	0.0	0.0	0.0	0.0	0.0	0.0	0.0	0.0				
	1004	4.28	1.7106580382976861	3.0	3.0	1.0	5.0	1	4.28	0.0	0.0	0.0	0.0	0.0	0.0	0.0	0.0	0.0	0.0	0.0	0.0				
	1024	0.1	-3.836750297896581	0.0	0.0	1.0	0.0	1	0.1	0.0	0.0	0.0	0.0	0.0	0.0	0.0	0.0	0.0	0.0	0.0	0.0				
	1027	24.9	7.940322417623927	13.0	13.0	1.0	30.0	1	24.9	0.0	0.0	0.0	0.0	0.0	0.0	0.0	0.0	0.0	0.0	0.0	0.0				
	1028	2.99	2.293287435931175	3.0	3.0	1.0	4.0	1	2.99	0.0	0.0	0.0	0.0	0.0	0.0	0.0	0.0	0.0	0.0	0.0	0.0				
	1029	24.9	9.07452774032966	14.000000000000002	14.000000000000002	1.0	30.0	1	24.9	0.0	0.0	0.0	0.0	0.0	0.0	0.0	0.0	0.0	0.0	0.0	0.0				
	1053	59.760000000000005	18.10394903930889	53.0	0.0	1.0	72.0	1	59.760000000000005	0.0	0.0	0.0	0.0	0.0	0.0	0.0	0.0	0.0	0.0	0.0	0.0				
	1054	29.880000000000003	19.3715387526084	31.0	0.0	1.0	36.0	1	29.880000000000003	0.0	0.0	0.0	0.0	0.0	0.0	0.0	0.0	0.0	0.0	0.0	0.0				
	1105	7.969999999999999	6.69340001878147	10.0	10.0	1.0	10.0	1	7.969999999999999	0.0	0.0	0.0	0.0	0.0	0.0	0.0	0.0	0.0	0.0	0.0	0.0				
	1106	22.91	3.1595494297966686	13.0	13.0	1.0	28.0	1	22.91	0.0	0.0	0.0	0.0	0.0	0.0	0.0	0.0	0.0	0.0	0.0	0.0				
	1107	10.56	-4.554750505069907	3.0	3.0	1.0	13.0	1	10.56	0.0	0.0	0.0	0.0	0.0	0.0	0.0	0.0	0.0	0.0	0.0	0.0				
	1138	44.82	35.531704558158914	41.0	0.0	1.0	54.0	1	44.82	0.0	0.0	0.0	0.0	0.0	0.0	0.0	0.0	0.0	0.0	0.0	0.0				
	1140	229.99999999999997	47.16196920480895	199.0	-87.0	1.0	252.0	1	229.99999999999997	0.0	0.0	0.0	0.0	0.0	0.0	0.0	0.0	0.0	0.0	0.0	0.0				
	1141	94.917	38.0974013738988	190.0	-89.0	1.0	251.0	1	225.0	0.0	0.0	0.0	0.0	0.0	0.0	0.0	0.0	0.0	0.0	0.0	0.0				
	1175	37.84	7.474032087840604	20.0	20.0	1.0	45.0	1	37.84	0.0	0.0	0.0	0.0	0.0	0.0	0.0	0.0	0.0	0.0	0.0	0.0				
	1182	40.0	0.3331091059680056	125.0	-50.0	1.0	133.0	1	120.0	0.0	0.0	0.0	0.0	0.0	0.0	0.0	0.0	0.0	0.0	0.0	0.0				
	1183	120.0	6.793775129419107	125.0	-50.0	1.0	133.0	1	120.0	0.0	0.0	0.0	0.0	0.0	0.0	0.0	0.0	0.0	0.0	0.0	0.0				
	1184	120.0	47.70927055966621	125.0	-50.0	1.0	133.0	1	120.0	0.0	0.0	0.0	0.0	0.0	0.0	0.0	0.0	0.0	0.0	0.0	0.0				
	1191	106.56000000000002	15.614184453807352	129.0	-47.0	1.0	128.0	1	106.56000000000002	0.0	0.0	0.0	0.0	0.0	0.0	0.0	0.0	0.0	0.0	0.0	0.0				
	1192	250.0	58.99255373945241	125.0	-50.0	1.0	123.0	1	250.0	0.0	0.0	0.0	0.0	0.0	0.0	0.0	0.0	0.0	0.0	0.0	0.0				
	1201	99.59	-11.205078840102045	90.0	0.0	1.0	120.0	1	99.59	0.0	0.0	0.0	0.0	0.0	0.0	0.0	0.0	0.0	0.0	0.0	0.0				
	1202	99.59	59.64757117431682	90.0	0.0	1.0	120.0	1	99.59	0.0	0.0	0.0	0.0	0.0	0.0	0.0	0.0	0.0	0.0	0.0	0.0				
	1203	99.59	36.12817306926095	90.0	0.0	1.0	120.0	1	99.59	0.0	0.0	0.0	0.0	0.0	0.0	0.0	0.0	0.0	0.0	0.0	0.0				
	1232	51.790000000000006	27.46495353265249	41.0	0.0	1.0	62.0	1	51.790000000000006	0.0	0.0	0.0	0.0	0.0	0.0	0.0	0.0	0.0	0.0	0.0	0.0				
	1233	14.940000000000001	21.045109351795713	41.0	0.0	1.0	18.0	1	14.940000000000001	0.0	0.0	0.0	0.0	0.0	0.0	0.0	0.0	0.0	0.0	0.0	0.0				
	1244	18.92	17.44693772542889	20.0	20.0	1.0	23.0	1	18.92	0.0	0.0	0.0	0.0	0.0	0.0	0.0	0.0	0.0	0.0	0.0	0.0				
	1247	15.93	5.360578079682131	12.0	12.0	1.0	19.0	1	15.93	0.0	0.0	0.0	0.0	0.0	0.0	0.0	0.0	0.0	0.0	0.0	0.0				
	1250	197.19	44.631165071448905	151.0	0.0	1.0	237.0	1	197.19	0.0	0.0	0.0	0.0	0.0	0.0	0.0	0.0	0.0	0.0	0.0	0.0				
	1268	0.5	-5.639446355067059	0.0	0.0	1.0	1.0	1	0.5	0.0	0.0	0.0	0.0	0.0	0.0	0.0	0.0	0.0	0.0	0.0	0.0				
	1316	1.0	-4.171188585797761	0.0	0.0	1.0	1.0	1	1.0	0.0	0.0	0.0	0.0	0.0	0.0	0.0	0.0	0.0	0.0	0.0	0.0				
	1325	1.39	-1.8390667489534207	0.0	0.0	1.0	2.0	1	1.39	0.0	0.0	0.0	0.0	0.0	0.0	0.0	0.0	0.0	0.0	0.0	0.0				
	1349	1.49	-4.4026561812724845	0.0	0.0	1.0	2.0	1	1.49	0.0	0.0	0.0	0.0	0.0	0.0	0.0	0.0	0.0	0.0	0.0	0.0				
	1356	1.0	-3.696152238639222	2.0	2.0	1.0	1.0	1	1.0	0.0	0.0	0.0	0.0	0.0	0.0	0.0	0.0	0.0	0.0	0.0	0.0				
	1359	0.8	-6.327679649452506	1.0	1.0	1.0	1.0	1	0.8	0.0	0.0	0.0	0.0	0.0	0.0	0.0	0.0	0.0	0.0	0.0	0.0				
	1393	12.75	-5.438896598882738	11.0	0.0	1.0	15.0	1	12.75	0.0	0.0	0.0	0.0	0.0	0.0	0.0	0.0	0.0	0.0	0.0	0.0				
	1403	4.28	-3.3006345130523354	1.0	1.0	1.0	5.0	1	4.28	0.0	0.0	0.0	0.0	0.0	0.0	0.0	0.0	0.0	0.0	0.0	0.0				
	1416	371.0	18.353652393845714	180.0	10.0	1.0	246.0	1	371.0	0.0	0.0	0.0	0.0	0.0	0.0	0.0	0.0	0.0	0.0	0.0	0.0				
	1417	120.0	21.20067285384226	120.0	5.0	1.0	123.0	1	120.0	0.0	0.0	0.0	0.0	0.0	0.0	0.0	0.0	0.0	0.0	0.0	0.0				
	1418	20.0	13.02694415348026	90.0	5.0	1.0	123.0	1	20.0	0.0	0.0	0.0	0.0	0.0	0.0	0.0	0.0	0.0	0.0	0.0	0.0				
	1426	495.0	42.530348972592655	68.0	27.0	1.0	106.0	1	495.0	0.0	0.0	0.0	0.0	0.0	0.0	0.0	0.0	0.0	0.0	0.0	0.0				
	1429	0.2	-5.861274195571051	0.0	0.0	1.0	0.0	1	0.2	0.0	0.0	0.0	0.0	0.0	0.0	0.0	0.0	0.0	0.0	0.0	0.0				
	1469	0.6	-5.84720447270263	0.0	0.0	1.0	1.0	1	0.6	0.0	0.0	0.0	0.0	0.0	0.0	0.0	0.0	0.0	0.0	0.0	0.0				
	1475	2.09	-7.858513472714844	2.0	2.0	1.0	3.0	1	2.09	0.0	0.0	0.0	0.0	0.0	0.0	0.0	0.0	0.0	0.0	0.0	0.0				
	1504	31.17	36.14905919383722	2.0	2.0	1.0	37.0	1	31.17	0.0	0.0	0.0	0.0	0.0	0.0	0.0	0.0	0.0	0.0	0.0	0.0				
	1505	48.8	16.966489230881358	4.0	4.0	1.0	59.0	1	48.8	0.0	0.0	0.0	0.0	0.0	0.0	0.0	0.0	0.0	0.0	0.0	0.0				
	1514	2.29	-3.421083148925861	1.0	1.0	1.0	3.0	1	2.29	0.0	0.0	0.0	0.0	0.0	0.0	0.0	0.0	0.0	0.0	0.0	0.0				
	1534	0.3	-0.9584728295965042	0.0	0.0	1.0	0.0	1	0.3	0.0	0.0	0.0	0.0	0.0	0.0	0.0	0.0	0.0	0.0	0.0	0.0				
	1536	160.0	46.031525050034986	190.0	-89.0	1.0	251.0	1	225.0	0.0	0.0	0.0	0.0	0.0	0.0	0.0	0.0	0.0	0.0	0.0	0.0				
	1537	225.0	57.71825015753136	202.99999999999997	-95.0	1.0	255.0	1	225.0	0.0	0.0	0.0	0.0	0.0	0.0	0.0	0.0	0.0	0.0	0.0	0.0				
	1538	215.0	45.332581153583604	190.0	-89.0	1.0	255.0	1	215.0	0.0	0.0	0.0	0.0	0.0	0.0	0.0	0.0	0.0	0.0	0.0	0.0				
	1542	8.96	1.655071143295721	3.0	3.0	1.0	11.0	1	8.96	0.0	0.0	0.0	0.0	0.0	0.0	0.0	0.0	0.0	0.0	0.0	0.0				
	1543	1.2	-7.11608600631717	0.0	0.0	1.0	1.0	1	1.2	0.0	0.0	0.0	0.0	0.0	0.0	0.0	0.0	0.0	0.0	0.0	0.0				
	1550	1.79	-1.1814972201724612	1.0	1.0	1.0	2.0	1	1.79	0.0	0.0	0.0	0.0	0.0	0.0	0.0	0.0	0.0	0.0	0.0	0.0				
	1566	54.77000000000001	16.467408134825178	47.0	20.0	1.0	66.0	1	54.77000000000001	0.0	0.0	0.0	0.0	0.0	0.0	0.0	0.0	0.0	0.0	0.0	0.0				
	1587	63.739999999999995	16.64640752427495	27.0	27.0	1.0	77.0	1	63.739999999999995	0.0	0.0	0.0	0.0	0.0	0.0	0.0	0.0	0.0	0.0	0.0	0.0				
	1600	17.43	-5.437154295431048	3.0	3.0	1.0	21.0	1	17.43	0.0	0.0	0.0	0.0	0.0	0.0	0.0	0.0	0.0	0.0	0.0	0.0				
	1602	120.0	5.530053850976023	90.0	0.0	1.0	144.0	1	120.0	0.0	0.0	0.0	0.0	0.0	0.0	0.0	0.0	0.0	0.0	0.0	0.0				
	1603	120.0	53.62671301527456	90.0	0.0	1.0	144.0	1	120.0	0.0	0.0	0.0	0.0	0.0	0.0	0.0	0.0	0.0	0.0	0.0	0.0				
	1609	0.3	-4.399532322044347	0.0	0.0	1.0	0.0	1	0.3	0.0	0.0	0.0	0.0	0.0	0.0	0.0	0.0	0.0	0.0	0.0	0.0				
	1617	2.0	-6.009894875334488	0.0	0.0	1.0	2.0	1	2.0	0.0	0.0	0.0	0.0	0.0	0.0	0.0	0.0	0.0	0.0	0.0	0.0				
	1620	1.6	-7.581800275048457	0.0	0.0	1.0	2.0	1	1.6	0.0	0.0	0.0	0.0	0.0	0.0	0.0	0.0	0.0	0.0	0.0	0.0				
...
];
%% branch data
%    f_bus    t_bus    r    x    b    rateA    rateB    rateC    ratio    angle    status    angmin    angmax
mpc.branch = [
	16	1	0.00155	0.01169	0.0182	160.0	160.0	160.0	0	0	1	-60.0001403060998	60.0001403060998								
	355	1	0.00157	0.06612	0.0	160.0	160.0	160.0	1.0099	0.0	1	-60.0001403060998	60.0001403060998								
	17	2	0.00155	0.01169	0.0182	160.0	160.0	160.0	0	0	1	-60.0001403060998	60.0001403060998								
	354	2	0.00157	0.06612	0.0	160.0	160.0	160.0	1.022	0.0	1	-60.0001403060998	60.0001403060998								
	10	3	0.01068	0.07895	0.1226	274.0	274.0	274.0	0	0	1	-60.0001403060998	60.0001403060998								
	219	3	0.00165	0.06736	0.0	160.0	160.0	160.0	1.027	0.0	1	-60.0001403060998	60.0001403060998								
	220	3	0.00165	0.06736	0.0	160.0	160.0	160.0	0.9955	0.0	1	-60.0001403060998	60.0001403060998								
	7	4	0.01674	0.09711	0.14423	377.0	377.0	377.0	0	0	1	-60.0001403060998	60.0001403060998								
	11	4	0.00293	0.01599	0.02478	335.0	335.0	335.0	0	0	1	-60.0001403060998	60.0001403060998								
	14	4	0.00442	0.03223	0.04985	463.99999999999994	463.99999999999994	463.99999999999994	0	0	1	-60.0001403060998	60.0001403060998								
	16	4	0.00888	0.06665	0.08896	377.0	377.0	377.0	0	0	1	-60.0001403060998	60.0001403060998								
	22	4	0.00783	0.043	0.04962	350.0	350.0	350.0	0	0	1	-60.0001403060998	60.0001403060998								
	245	4	0.00165	0.06901	0.0	160.0	160.0	160.0	1.0594	0.0	1	-60.0001403060998	60.0001403060998								
	246	4	0.00165	0.06901	0.0	160.0	160.0	160.0	1.0448	0.0	1	-60.0001403060998	60.0001403060998								
	5	6	0.00064	0.0305	0.0	400.0	400.0	400.0	1.0435	-0.6	1	-60.0001403060998	60.0001403060998								
	7	5	0.00525	0.03988	0.06195	381.0	381.0	381.0	0	0	1	-60.0001403060998	60.0001403060998								
	10	5	0.01459	0.11219	0.16553	381.0	381.0	381.0	0	0	1	-60.0001403060998	60.0001403060998								
	309	5	0.00165	0.0686	0.0	160.0	160.0	160.0	1.0646	0.0	1	-60.0001403060998	60.0001403060998								
	309	5	0.00165	0.0686	0.0	160.0	160.0	160.0	1.0523	0.0	1	-60.0001403060998	60.0001403060998								
	6	8	0.00112	0.01329	0.34125	1316.0	1316.0	1316.0	0	0	1	-60.0001403060998	60.0001403060998								
	6	9	0.00299	0.03675	0.9184	1427.0	1427.0	1427.0	0	0	1	-60.0001403060998	60.0001403060998								
	15	6	0.00298	0.03417	0.93504	1427.0	1427.0	1427.0	0	0	1	-60.0001403060998	60.0001403060998								
	31	6	0.0015	0.01506	0.4032	1385.0	1385.0	1385.0	0	0	1	-60.0001403060998	60.0001403060998								
	310	6	0.0015	0.06188	0.0	250.0	250.0	250.0	1.0613	0.0	1	-60.0001403060998	60.0001403060998								
	12	7	0.01211	0.08742	0.14017	381.0	381.0	381.0	0	0	1	-60.0001403060998	60.0001403060998								
	13	7	0.00205	0.01326	0.02243	335.0	335.0	335.0	0	0	1	-60.0001403060998	60.0001403060998								
	19	7	0.0057	0.0407	0.06021	323.0	323.0	323.0	0	0	1	-60.0001403060998	60.0001403060998								
	21	7	0.00093	0.00651	0.01113	160.0	160.0	160.0	0	0	1	-60.0001403060998	60.0001403060998								
	29	7	0.01269	0.07498	0.1302	362.0	362.0	362.0	0	0	1	-60.0001403060998	60.0001403060998								
	321	7	0.00041	0.03368	0.0	250.0	250.0	250.0	1.0323	0.0	1	-60.0001403060998	60.0001403060998								
	322	7	0.00165	0.06775	0.0	160.0	160.0	160.0	1.0569	0.0	1	-60.0001403060998	60.0001403060998								
	8	18	0.00336	0.03977	1.02163	1316.0	1316.0	1316.0	0	0	1	-60.0001403060998	60.0001403060998								
	332	9	0.00087	0.05244	-0.02144	330.0	330.0	330.0	1.0781	0.0	1	-60.0001403060998	60.0001403060998								
	171	10	0.01409	0.10413	0.15972	463.99999999999994	463.99999999999994	463.99999999999994	0	0	1	-60.0001403060998	60.0001403060998								
	346	10	0.00124	0.06839	0.0	160.0	160.0	160.0	1.0054	0.0	1	-60.0001403060998	60.0001403060998								
	347	10	0.00124	0.06839	0.0	160.0	160.0	160.0	1.024	0.0	1	-60.0001403060998	60.0001403060998								
	16	11	0.0057	0.03952	0.07553	463.99999999999994	463.99999999999994	463.99999999999994	0	0	1	-60.0001403060998	60.0001403060998								
	17	11	0.0057	0.03952	0.07553	463.99999999999994	463.99999999999994	463.99999999999994	0	0	1	-60.0001403060998	60.0001403060998								
	111	11	0.01068	0.06196	0.09496	394.0	394.0	394.0	0	0	1	-60.0001403060998	60.0001403060998								
	352	11	0.00165	0.06901	0.0	160.0	160.0	160.0	1.0412	0.0	1	-60.0001403060998	60.0001403060998								
	353	11	0.00165	0.06901	0.0	160.0	160.0	160.0	1.0559	0.0	1	-60.0001403060998	60.0001403060998								
	140	12	0.01465	0.10589	0.17085	463.99999999999994	463.99999999999994	463.99999999999994	0	0	1	-60.0001403060998	60.0001403060998								
	359	12	0.00155	0.06612	0.0	160.0	160.0	160.0	1.0395	0.0	1	-60.0001403060998	60.0001403060998								
	360	12	0.00157	0.06612	0.0	160.0	160.0	160.0	1.059	0.0	1	-60.0001403060998	60.0001403060998								
	29	13	0.01345	0.08114	0.14113	339.0	339.0	339.0	0	0	1	-60.0001403060998	60.0001403060998								
	365	13	0.00165	0.06901	0.0	160.0	160.0	160.0	1.0312	0.0	1	-60.0001403060998	60.0001403060998								
	366	13	0.00165	0.06901	0.0	160.0	160.0	160.0	0.9872	0.0	1	-60.0001403060998	60.0001403060998								
	17	14	0.00384	0.02853	0.04588	463.99999999999994	463.99999999999994	463.99999999999994	0	0	1	-60.0001403060998	60.0001403060998								
	367	14	0.00157	0.06798	0.0	160.0	160.0	160.0	1.0664	0.0	1	-60.0001403060998	60.0001403060998								
	368	14	0.00165	0.06901	0.0	160.0	160.0	160.0	1.0777	0.0	1	-60.0001403060998	60.0001403060998								
	18	15	0.00358	0.04262	1.0944	1662.0	1662.0	1662.0	0	0	1	-60.0001403060998	60.0001403060998								
	15	165	0.00207	0.02474	0.664	831.0	831.0	831.0	0	0	1	-60.0001403060998	60.0001403060998								
	374	15	0.0015	0.06188	0.0	250.0	250.0	250.0	1.1502	0.0	1	-60.0001403060998	60.0001403060998								
	16	18	0.00036	0.02519	0.0	500.0	500.0	500.0	1.0605	0.0	1	-60.0001403060998	60.0001403060998								
	16	73	0.00909	0.0624	0.11142	463.99999999999994	463.99999999999994	463.99999999999994	0	0	1	-60.0001403060998	60.0001403060998								
	17	18	0.00036	0.02519	0.0	500.0	500.0	500.0	1.0607	0.0	1	-60.0001403060998	60.0001403060998								
	17	74	0.00868	0.06405	0.09699	463.99999999999994	463.99999999999994	463.99999999999994	0	0	1	-60.0001403060998	60.0001403060998								
	20	18	0.00063	0.00749	0.39226	1427.0	1427.0	1427.0	0	0	1	-60.0001403060998	60.0001403060998								
	75	18	0.00219	0.02369	0.59584	1434.0	1434.0	1434.0	0	0	1	-60.0001403060998	60.0001403060998								
	18	76	0.00137	0.01625	0.41184	1662.0	1662.0	1662.0	0	0	1	-60.0001403060998	60.0001403060998								
	18	101	0.00231	0.02769	0.70144	1662.0	1662.0	1662.0	0	0	1	-60.0001403060998	60.0001403060998								
	124	19	0.01696	0.12366	0.19699	463.99999999999994	463.99999999999994	463.99999999999994	0	0	1	-60.0001403060998	60.0001403060998								
	425	19	0.00165	0.06818	0.0	160.0	160.0	160.0	1.0241	0.0	1	-60.0001403060998	60.0001403060998								
	67	20	0.00331	0.03425	0.85888	831.0	831.0	831.0	0	0	1	-60.0001403060998	60.0001403060998								
	447	20	0.00137	0.06119	-0.01504	250.0	250.0	250.0	1.0796	0.0	1	-60.0001403060998	60.0001403060998								
	448	20	0.00137	0.06119	-0.01504	250.0	250.0	250.0	1.0923	0.0	1	-60.0001403060998	60.0001403060998								
	502	21	0.00165	0.07107	0.0	160.0	160.0	160.0	0.9922	0.0	1	-60.0001403060998	60.0001403060998								
	112	22	0.00465	0.02618	0.02962	362.0	362.0	362.0	0	0	1	-60.0001403060998	60.0001403060998								
	526	22	0.00165	0.06901	0.0	160.0	160.0	160.0	1.0685	0.0	1	-60.0001403060998	60.0001403060998								
	527	22	0.00165	0.06901	0.0	160.0	160.0	160.0	1.0424	0.0	1	-60.0001403060998	60.0001403060998								
	37	23	0.01163	0.07031	0.1058	394.0	394.0	394.0	0	0	1	-60.0001403060998	60.0001403060998								
	46	23	0.00837	0.04868	0.07348	457.0	457.0	457.0	0	0	1	-60.0001403060998	60.0001403060998								
	53	23	0.01122	0.06558	0.09835	274.0	274.0	274.0	0	0	1	-60.0001403060998	60.0001403060998								
	540	23	0.0014	0.0668	0.0	160.0	160.0	160.0	1.0182	0.0	1	-60.0001403060998	60.0001403060998								
	54	24	0.00769	0.05727	0.08789	160.0	160.0	160.0	0	0	1	-60.0001403060998	60.0001403060998								
	545	24	0.00151	0.06715	0.0	160.0	160.0	160.0	1.0161	0.0	1	-60.0001403060998	60.0001403060998								
	41	25	0.00556	0.04145	0.0636	274.0	274.0	274.0	0	0	1	-60.0001403060998	60.0001403060998								
	53	25	0.00452	0.03368	0.05169	463.99999999999994	463.99999999999994	463.99999999999994	0	0	1	-60.0001403060998	60.0001403060998								
	54	25	0.00019	0.0014	0.00213	463.99999999999994	463.99999999999994	463.99999999999994	0	0	1	-60.0001403060998	60.0001403060998								
	564	25	0.00157	0.07808	0.0	160.0	160.0	160.0	1.0276	0.0	1	-60.0001403060998	60.0001403060998								
	38	26	0.00698	0.05196	0.07967	160.0	160.0	160.0	0	0	1	-60.0001403060998	60.0001403060998								
	568	26	0.00149	0.06616	0.0	160.0	160.0	160.0	1.013	0.0	1	-60.0001403060998	60.0001403060998								
	28	27	0.0	0.0001	0.0	876.0	876.0	876.0	0	0	1	-60.0001403060998	60.0001403060998								
	33	27	0.0024	0.01494	0.02253	160.0	160.0	160.0	0	0	1	-60.0001403060998	60.0001403060998								
	48	27	0.01213	0.06215	0.09371	362.0	362.0	362.0	0	0	1	-60.0001403060998	60.0001403060998								
	27	74	0.01116	0.07231	0.10367	304.0	304.0	304.0	0	0	1	-60.0001403060998	60.0001403060998								
	47	28	0.00248	0.01798	0.02759	463.99999999999994	463.99999999999994	463.99999999999994	0	0	1	-60.0001403060998	60.0001403060998								
	28	88	0.01488	0.08161	0.1148	362.0	362.0	362.0	0	0	1	-60.0001403060998	60.0001403060998								
	30	29	0.0	0.0001	0.0	876.0	876.0	876.0	0	0	1	-60.0001403060998	60.0001403060998								
	29	32	0.00034	0.02097	0.0	500.0	500.0	500.0	1.0619	0.0	1	-60.0001403060998	60.0001403060998								
	45	29	0.00545	0.04021	0.06699	463.99999999999994	463.99999999999994	463.99999999999994	0	0	1	-60.0001403060998	60.0001403060998								
	48	29	0.00574	0.04283	0.06573	463.99999999999994	463.99999999999994	463.99999999999994	0	0	1	-60.0001403060998	60.0001403060998								
	613	29	0.00157	0.06775	0.0	160.0	160.0	160.0	1.0016	0.0	1	-60.0001403060998	60.0001403060998								
	46	30	0.00545	0.04021	0.06699	463.99999999999994	463.99999999999994	463.99999999999994	0	0	1	-60.0001403060998	60.0001403060998								
	49	30	0.00707	0.04541	0.06931	362.0	362.0	362.0	0	0	1	-60.0001403060998	60.0001403060998								
	32	31	0.0	0.0001	0.0	1593.0	1593.0	1593.0	0	0	1	-60.0001403060998	60.0001403060998								
	39	31	0.00176	0.02144	0.57344	1385.0	1385.0	1385.0	0	0	1	-60.0001403060998	60.0001403060998								
	36	32	0.00167	0.0189	0.54176	498.00000000000006	498.00000000000006	498.00000000000006	0	0	1	-60.0001403060998	60.0001403060998								
	615	33	0.00163	0.06946	0.0	160.0	160.0	160.0	1.0291	0.0	1	-60.0001403060998	60.0001403060998								
	35	34	0.0	0.0001	0.0	1593.0	1593.0	1593.0	0	0	1	-60.0001403060998	60.0001403060998								
	34	51	0.00113	0.01406	0.37488	1385.0	1385.0	1385.0	0	0	1	-60.0001403060998	60.0001403060998								
	183	34	0.00188	0.02287	0.6432	1385.0	1385.0	1385.0	0	0	1	-60.0001403060998	60.0001403060998								
	183	35	0.00188	0.02287	0.6432	1385.0	1385.0	1385.0	0	0	1	-60.0001403060998	60.0001403060998								
	617	35	0.00135	0.06052	0.0	250.0	250.0	250.0	1.0654	0.0	1	-60.0001403060998	60.0001403060998								
	644	36	0.00135	0.06052	0.0	250.0	250.0	250.0	1.1003	0.0	1	-60.0001403060998	60.0001403060998								
	645	36	0.00153	0.06156	0.0	250.0	250.0	250.0	1.0971	0.0	1	-60.0001403060998	60.0001403060998								
	38	37	0.0	0.0001	0.0	876.0	876.0	876.0	0	0	1	-60.0001403060998	60.0001403060998								
	663	37	0.00157	0.06616	0.0	160.0	160.0	160.0	1.0009	0.0	1	-60.0001403060998	60.0001403060998								
	55	38	0.00316	0.02076	0.03146	394.0	394.0	394.0	0	0	1	-60.0001403060998	60.0001403060998								
	40	39	0.0	0.0001	0.0	1593.0	1593.0	1593.0	0	0	1	-60.0001403060998	60.0001403060998								
	682	39	0.00139	0.05984	0.0	250.0	250.0	250.0	1.0603	0.0	1	-60.0001403060998	60.0001403060998								
	44	40	0.00109	0.01277	0.34176	1385.0	1385.0	1385.0	0	0	1	-60.0001403060998	60.0001403060998								
	679	40	0.0014	0.06235	0.0	250.0	250.0	250.0	1.0996	0.0	1	-60.0001403060998	60.0001403060998								
	42	41	0.0	0.0001	0.0	876.0	876.0	876.0	0	0	1	-60.0001403060998	60.0001403060998								
	41	43	0.00081	0.03	0.0	400.0	400.0	400.0	1.0377	0.0	1	-60.0001403060998	60.0001403060998								
	80	41	0.00372	0.0438	0.10096	609.0	609.0	609.0	0	0	1	-60.0001403060998	60.0001403060998								
	47	42	0.00882	0.06564	0.10066	274.0	274.0	274.0	0	0	1	-60.0001403060998	60.0001403060998								
	54	42	0.00355	0.02643	0.04056	392.0	392.0	392.0	0	0	1	-60.0001403060998	60.0001403060998								
	689	42	0.00145	0.06839	0.0	160.0	160.0	160.0	1.0037	0.0	1	-60.0001403060998	60.0001403060998								
	44	43	0.0	0.0001	0.0	1593.0	1593.0	1593.0	0	0	1	-60.0001403060998	60.0001403060998								
	99	43	0.00169	0.01994	0.50624	831.0	831.0	831.0	0	0	1	-60.0001403060998	60.0001403060998								
	50	44	0.00094	0.01097	0.29376	1662.0	1662.0	1662.0	0	0	1	-60.0001403060998	60.0001403060998								
	46	45	0.0	0.0001	0.0	876.0	876.0	876.0	0	0	1	-60.0001403060998	60.0001403060998								
	49	45	0.01048	0.06097	0.09205	394.0	394.0	394.0	0	0	1	-60.0001403060998	60.0001403060998								
	706	47	0.00157	0.06775	0.0	160.0	160.0	160.0	1.0249	0.0	1	-60.0001403060998	60.0001403060998								
	707	47	0.00165	0.06775	0.0	160.0	160.0	160.0	1.0201	0.0	1	-60.0001403060998	60.0001403060998								
	49	48	0.0	0.0001	0.0	876.0	876.0	876.0	0	0	1	-60.0001403060998	60.0001403060998								
	717	48	0.00163	0.06783	0.0	160.0	160.0	160.0	1.023	0.0	1	-60.0001403060998	60.0001403060998								
	716	49	0.00143	0.06831	0.0	160.0	160.0	160.0	1.0238	0.0	1	-60.0001403060998	60.0001403060998								
	51	50	0.0	0.0001	0.0	1593.0	1593.0	1593.0	0	0	1	-60.0001403060998	60.0001403060998								
	98	50	0.0015	0.01788	0.4512	831.0	831.0	831.0	0	0	1	-60.0001403060998	60.0001403060998								
	100	50	0.00469	0.05544	1.4048	831.0	831.0	831.0	0	0	1	-60.0001403060998	60.0001403060998								
	726	50	0.00139	0.0608	0.0	250.0	250.0	250.0	1.0815	0.0	1	-60.0001403060998	60.0001403060998								
	727	51	0.0014	0.06235	0.0	250.0	250.0	250.0	1.0819	0.0	1	-60.0001403060998	60.0001403060998								
	53	52	0.00151	0.00878	0.01316	160.0	160.0	160.0	0	0	1	-60.0001403060998	60.0001403060998								
	754	52	0.00163	0.06754	0.0	160.0	160.0	160.0	1.0317	0.0	1	-60.0001403060998	60.0001403060998								
	181	55	0.01434	0.08353	0.12603	394.0	394.0	394.0	0	0	1	-60.0001403060998	60.0001403060998								
	778	55	0.00161	0.06762	0.0	160.0	160.0	160.0	0.9979	0.0	1	-60.0001403060998	60.0001403060998								
	74	56	0.00207	0.01281	0.02052	394.0	394.0	394.0	0	0	1	-60.0001403060998	60.0001403060998								
	796	56	0.00207	0.06777	-0.003	160.0	160.0	160.0	1.0389	0.0	1	-60.0001403060998	60.0001403060998								
	81	57	0.00083	0.00496	0.00726	137.0	137.0	137.0	0	0	1	-60.0001403060998	60.0001403060998								
	80	58	0.00083	0.00496	0.00726	137.0	137.0	137.0	0	0	1	-60.0001403060998	60.0001403060998								
	63	59	0.00207	0.01405	0.02265	362.0	362.0	362.0	0	0	1	-60.0001403060998	60.0001403060998								
	82	59	0.01116	0.07045	0.11606	362.0	362.0	362.0	0	0	1	-60.0001403060998	60.0001403060998								
	821	59	0.00165	0.06798	-0.00319	160.0	160.0	160.0	1.0178	0.0	1	-60.0001403060998	60.0001403060998								
	60	85	0.01095	0.0593	0.08441	362.0	362.0	362.0	0	0	1	-60.0001403060998	60.0001403060998								
	104	60	0.00599	0.04091	0.07212	463.99999999999994	463.99999999999994	463.99999999999994	0	0	1	-60.0001403060998	60.0001403060998								
	834	60	0.00145	0.06921	-0.00532	160.0	160.0	160.0	0.9936	0.0	1	-60.0001403060998	60.0001403060998								
	836	60	0.00372	0.12583	-0.00242	100.0	100.0	100.0	1.0154	0.0	1	-60.0001403060998	60.0001403060998								
	62	61	0.0	0.0001	0.0	876.0	876.0	876.0	0	0	1	-60.0001403060998	60.0001403060998								
	64	61	0.00517	0.03843	0.05876	463.99999999999994	463.99999999999994	463.99999999999994	0	0	1	-60.0001403060998	60.0001403060998								
	109	61	0.00083	0.0062	0.00958	463.99999999999994	463.99999999999994	463.99999999999994	0	0	1	-60.0001403060998	60.0001403060998								
	184	61	0.01219	0.07066	0.11742	274.0	274.0	274.0	0	0	1	-60.0001403060998	60.0001403060998								
	82	62	0.00165	0.01095	0.01955	463.99999999999994	463.99999999999994	463.99999999999994	0	0	1	-60.0001403060998	60.0001403060998								
	110	62	0.00083	0.0062	0.00949	463.99999999999994	463.99999999999994	463.99999999999994	0	0	1	-60.0001403060998	60.0001403060998								
	71	63	0.00475	0.03079	0.04879	362.0	362.0	362.0	0	0	1	-60.0001403060998	60.0001403060998								
	91	63	0.00455	0.02769	0.04608	394.0	394.0	394.0	0	0	1	-60.0001403060998	60.0001403060998								
	94	63	0.00186	0.0126	0.02236	463.99999999999994	463.99999999999994	463.99999999999994	0	0	1	-60.0001403060998	60.0001403060998								
	96	63	0.00826	0.04236	0.06118	362.0	362.0	362.0	0	0	1	-60.0001403060998	60.0001403060998								
	64	69	0.00434	0.02975	0.05266	463.99999999999994	463.99999999999994	463.99999999999994	0	0	1	-60.0001403060998	60.0001403060998								
	79	64	0.00351	0.02438	0.03998	362.0	362.0	362.0	0	0	1	-60.0001403060998	60.0001403060998								
	93	64	0.00186	0.0126	0.02236	463.99999999999994	463.99999999999994	463.99999999999994	0	0	1	-60.0001403060998	60.0001403060998								
	95	64	0.00826	0.04236	0.06118	362.0	362.0	362.0	0	0	1	-60.0001403060998	60.0001403060998								
	90	65	0.00785	0.04132	0.06389	394.0	394.0	394.0	0	0	1	-60.0001403060998	60.0001403060998								
	65	91	0.00227	0.01446	0.02585	394.0	394.0	394.0	0	0	1	-60.0001403060998	60.0001403060998								
	66	67	0.00031	0.02094	0.0	500.0	500.0	500.0	1.0616	0.0	1	-60.0001403060998	60.0001403060998								
	66	68	0.00248	0.02355	0.04763	457.0	457.0	457.0	0	0	1	-60.0001403060998	60.0001403060998								
	152	66	0.01033	0.08285	0.13959	463.99999999999994	463.99999999999994	463.99999999999994	0	0	1	-60.0001403060998	60.0001403060998								
	138	67	0.00194	0.02056	0.51584	866.0	866.0	866.0	0	0	1	-60.0001403060998	60.0001403060998								
	911	67	0.00156	0.06269	-0.00992	250.0	250.0	250.0	1.0656	0.0	1	-60.0001403060998	60.0001403060998								
	912	67	0.00156	0.06269	-0.00992	250.0	250.0	250.0	1.066	0.0	1	-60.0001403060998	60.0001403060998								
	68	78	0.00579	0.04153	0.06621	463.99999999999994	463.99999999999994	463.99999999999994	0	0	1	-60.0001403060998	60.0001403060998								
	978	68	0.00165	0.06694	-0.0031	160.0	160.0	160.0	1.0083	0.0	1	-60.0001403060998	60.0001403060998								
	979	68	0.00145	0.06653	-0.00319	160.0	160.0	160.0	1.006	0.0	1	-60.0001403060998	60.0001403060998								
	83	69	0.00145	0.00992	0.01762	463.99999999999994	463.99999999999994	463.99999999999994	0	0	1	-60.0001403060998	60.0001403060998								
	995	69	0.00145	0.0655	-0.00252	160.0	160.0	160.0	1.0107	0.0	1	-60.0001403060998	60.0001403060998								
	996	69	0.00145	0.07045	-0.00252	160.0	160.0	160.0	1.0025	0.0	1	-60.0001403060998	60.0001403060998								
	70	73	0.00145	0.00971	0.01626	457.0	457.0	457.0	0	0	1	-60.0001403060998	60.0001403060998								
	107	70	0.00062	0.00413	0.00697	457.0	457.0	457.0	0	0	1	-60.0001403060998	60.0001403060998								
	72	71	0.0	0.0001	0.0	876.0	876.0	876.0	0	0	1	-60.0001403060998	60.0001403060998								
	86	71	0.00165	0.00971	0.01423	362.0	362.0	362.0	0	0	1	-60.0001403060998	60.0001403060998								
	1059	71	0.00145	0.06983	-0.00232	160.0	160.0	160.0	1.0193	0.0	1	-60.0001403060998	60.0001403060998								
	1060	71	0.00165	0.06777	-0.00281	160.0	160.0	160.0	0.9558	0.0	1	-60.0001403060998	60.0001403060998								
	73	75	0.00075	0.02444	-0.00832	330.0	330.0	330.0	1.0544	1.7	1	-60.0001403060998	60.0001403060998								
	87	73	0.00393	0.02851	0.04501	463.99999999999994	463.99999999999994	463.99999999999994	0	0	1	-60.0001403060998	60.0001403060998								
	74	76	0.00075	0.02469	-0.008	330.0	330.0	330.0	1.0606	1.7	1	-60.0001403060998	60.0001403060998								
	74	108	0.00083	0.00517	0.00871	463.99999999999994	463.99999999999994	463.99999999999994	0	0	1	-60.0001403060998	60.0001403060998								
	76	75	0.0	0.0001	0.0	1593.0	1593.0	1593.0	0	0	1	-60.0001403060998	60.0001403060998								
...